/*--------------------------------*- C++ -*----------------------------------*\
| =========                 |                                                 |
| \\      /  F ield         | OpenFOAM: The Open Source CFD Toolbox           |
|  \\    /   O peration     |                                                 |
|   \\  /    A nd           |                                                 |
|    \\/     M anipulation  |                                                 |
\*---------------------------------------------------------------------------*/
FoamFile
{
    version     2.0;
    format      ascii;
    class       volScalarField;
    location    "0";
    object      H2;
}
// * * * * * * * * * * * * * * * * * * * * * * * * * * * * * * * * * * * * * //

dimensions      [0 0 0 0 0 0 0];

internalField   uniform 0;

boundaryField
{
    inletAir
    {
        type            codedFixedValue;
        value           uniform 0;
        name            tanhMixingH2;
        code
        #{
            const vectorField& Cf = patch().Cf();
            scalarField& H2 = *this;
            const scalar y0     = 2.5e-3;
            const scalar delta  = 3.333e-5;
            const scalar H2_H2  = 1.0;
            const scalar H2_air = 0.0;
            forAll(H2, faceI)
            {
                const scalar y = Cf[faceI].y();
                const scalar s = 0.5*(1.0 + Foam::tanh((y - y0)/delta));
                H2[faceI] = (1.0 - s)*H2_H2 + s*H2_air;
            }
        #};
    }

    inletFuel
    {
        type            codedFixedValue;
        value           uniform 1;
        name            tanhMixingH2;
        code
        #{
            const vectorField& Cf = patch().Cf();
            scalarField& H2 = *this;
            const scalar y0     = 2.5e-3;
            const scalar delta  = 3.333e-5;
            const scalar H2_H2  = 1.0;
            const scalar H2_air = 0.0;
            forAll(H2, faceI)
            {
                const scalar y = Cf[faceI].y();
                const scalar s = 0.5*(1.0 + Foam::tanh((y - y0)/delta));
                H2[faceI] = (1.0 - s)*H2_H2 + s*H2_air;
            }
        #};
    }

    top
    {
        type        zeroGradient;
    }

    bottom
    {
        type        zeroGradient;
    }

    outlet
    {
        type        zeroGradient;
    }

    frontAndBack
    {
        type        empty;
    }
}

// ************************************************************************* //
